Circuit: * C:\Users\Afonso Muralha\Documents\GitHub\0603-Led-Matrix\PCB ESP32\Simulations\Draft1.asc

WARNING: Less than two connections to node NC_02.  This node is used by S:U1:1.
Direct Newton iteration for .op point succeeded.
Heightened Def Con from 2.87302 to 2.87302

Date: Sat Aug 17 21:35:33 2019
Total elapsed time: 14.430 seconds.

tnom = 27
temp = 27
method = modified trap
totiter = 2053414
traniter = 2053406
tranpoints = 434858
accept = 338217
rejected = 96642
matrix size = 19
fillins = 0
solver = Normal
Matrix Compiler1: 758 bytes object code size  0.3/0.2/[0.2]
Matrix Compiler2: 1.19 KB object code size  0.2/0.4/[0.2]

